<?xml version="1.0" encoding="UTF-8"?>
<net version="1.16" junctionCornerDetail="5" limitTurnSpeed="5.50" xmlns:xsi="http://www.w3.org/2001/XMLSchema-instance" xsi:noNamespaceSchemaLocation="http://sumo.dlr.de/xsd/net_file.xsd">

    <location netOffset="0.00,0.00" convBoundary="-50.00,-50.00,50.00,50.00" origBoundary="-10000000000.00,-10000000000.00,10000000000.00,10000000000.00" projParameter="!"/>

    <edge id=":J0_0" function="internal">
        <lane id=":J0_0_0" index="0" speed="7.33" length="11.73" shape="-8.00,13.60 -8.35,9.75 -9.40,7.00 -11.15,5.35 -13.60,4.80"/>
        <lane id=":J0_0_1" index="1" speed="8.10" length="14.57" shape="-8.00,13.60 -8.35,8.35 -9.40,4.60 -11.15,2.35 -13.60,1.60"/>
    </edge>
    <edge id=":J0_2" function="internal">
        <lane id=":J0_2_0" index="0" speed="13.89" length="27.32" shape="-4.80,13.60 -4.80,-13.60"/>
        <lane id=":J0_2_1" index="1" speed="13.89" length="27.32" shape="-4.80,13.60 -4.30,4.98 -3.20,-1.39 -2.10,-7.06 -1.60,-13.60"/>
    </edge>
    <edge id=":J0_4" function="internal">
        <lane id=":J0_4_0" index="0" speed="10.88" length="9.75" shape="-1.60,13.60 -0.65,5.55 0.08,4.08"/>
        <lane id=":J0_4_1" index="1" speed="10.36" length="7.16" shape="-1.60,13.60 -0.65,6.95 -0.42,6.57"/>
    </edge>
    <edge id=":J0_24" function="internal">
        <lane id=":J0_24_0" index="0" speed="10.88" length="17.39" shape="0.08,4.08 2.20,-0.20 6.95,-3.65 13.60,-4.80"/>
    </edge>
    <edge id=":J0_25" function="internal">
        <lane id=":J0_25_0" index="0" speed="10.36" length="17.36" shape="-0.42,6.57 2.20,2.20 6.95,-0.65 13.60,-1.60"/>
    </edge>
    <edge id=":J0_6" function="internal">
        <lane id=":J0_6_0" index="0" speed="7.33" length="11.73" shape="13.60,8.00 9.75,8.35 7.00,9.40 5.35,11.15 4.80,13.60"/>
        <lane id=":J0_6_1" index="1" speed="8.10" length="14.57" shape="13.60,8.00 8.35,8.35 4.60,9.40 2.35,11.15 1.60,13.60"/>
    </edge>
    <edge id=":J0_8" function="internal">
        <lane id=":J0_8_0" index="0" speed="13.89" length="27.32" shape="13.60,4.80 -13.60,4.80"/>
        <lane id=":J0_8_1" index="1" speed="13.89" length="27.32" shape="13.60,4.80 4.98,4.30 -1.39,3.20 -7.06,2.10 -13.60,1.60"/>
    </edge>
    <edge id=":J0_10" function="internal">
        <lane id=":J0_10_0" index="0" speed="10.88" length="27.14" shape="13.60,1.60 5.55,0.65 -0.20,-2.20 -3.65,-6.95 -4.80,-13.60"/>
        <lane id=":J0_10_1" index="1" speed="10.36" length="24.51" shape="13.60,1.60 6.95,0.65 2.20,-2.20 -0.65,-6.95 -1.60,-13.60"/>
    </edge>
    <edge id=":J0_12" function="internal">
        <lane id=":J0_12_0" index="0" speed="7.33" length="11.73" shape="8.00,-13.60 8.35,-9.75 9.40,-7.00 11.15,-5.35 13.60,-4.80"/>
        <lane id=":J0_12_1" index="1" speed="8.10" length="14.57" shape="8.00,-13.60 8.35,-8.35 9.40,-4.60 11.15,-2.35 13.60,-1.60"/>
    </edge>
    <edge id=":J0_14" function="internal">
        <lane id=":J0_14_0" index="0" speed="13.89" length="27.32" shape="4.80,-13.60 4.80,13.60"/>
        <lane id=":J0_14_1" index="1" speed="13.89" length="27.32" shape="4.80,-13.60 4.30,-4.98 3.20,1.39 2.10,7.06 1.60,13.60"/>
    </edge>
    <edge id=":J0_16" function="internal">
        <lane id=":J0_16_0" index="0" speed="10.88" length="9.75" shape="1.60,-13.60 0.65,-5.55 -0.08,-4.08"/>
        <lane id=":J0_16_1" index="1" speed="10.36" length="7.16" shape="1.60,-13.60 0.65,-6.95 0.42,-6.57"/>
    </edge>
    <edge id=":J0_26" function="internal">
        <lane id=":J0_26_0" index="0" speed="10.88" length="17.39" shape="-0.08,-4.08 -2.20,0.20 -6.95,3.65 -13.60,4.80"/>
    </edge>
    <edge id=":J0_27" function="internal">
        <lane id=":J0_27_0" index="0" speed="10.36" length="17.36" shape="0.42,-6.57 -2.20,-2.20 -6.95,0.65 -13.60,1.60"/>
    </edge>
    <edge id=":J0_18" function="internal">
        <lane id=":J0_18_0" index="0" speed="7.33" length="11.73" shape="-13.60,-8.00 -9.75,-8.35 -7.00,-9.40 -5.35,-11.15 -4.80,-13.60"/>
        <lane id=":J0_18_1" index="1" speed="8.10" length="14.57" shape="-13.60,-8.00 -8.35,-8.35 -4.60,-9.40 -2.35,-11.15 -1.60,-13.60"/>
    </edge>
    <edge id=":J0_20" function="internal">
        <lane id=":J0_20_0" index="0" speed="13.89" length="27.32" shape="-13.60,-4.80 13.60,-4.80"/>
        <lane id=":J0_20_1" index="1" speed="13.89" length="27.32" shape="-13.60,-4.80 -4.98,-4.30 1.39,-3.20 7.06,-2.10 13.60,-1.60"/>
    </edge>
    <edge id=":J0_22" function="internal">
        <lane id=":J0_22_0" index="0" speed="10.88" length="27.14" shape="-13.60,-1.60 -5.55,-0.65 0.20,2.20 3.65,6.95 4.80,13.60"/>
        <lane id=":J0_22_1" index="1" speed="10.36" length="24.51" shape="-13.60,-1.60 -6.95,-0.65 -2.20,2.20 0.65,6.95 1.60,13.60"/>
    </edge>

    <edge id="-E0" from="J1" to="J0" priority="-1">
        <lane id="-E0_0" index="0" speed="13.89" length="36.40" shape="-50.00,-8.00 -13.60,-8.00"/>
        <lane id="-E0_1" index="1" speed="13.89" length="36.40" shape="-50.00,-4.80 -13.60,-4.80"/>
        <lane id="-E0_2" index="2" speed="13.89" length="36.40" shape="-50.00,-1.60 -13.60,-1.60"/>
    </edge>
    <edge id="-E1" from="J2" to="J0" priority="-1">
        <lane id="-E1_0" index="0" speed="13.89" length="36.40" shape="50.00,8.00 13.60,8.00"/>
        <lane id="-E1_1" index="1" speed="13.89" length="36.40" shape="50.00,4.80 13.60,4.80"/>
        <lane id="-E1_2" index="2" speed="13.89" length="36.40" shape="50.00,1.60 13.60,1.60"/>
    </edge>
    <edge id="-E2" from="J3" to="J0" priority="-1">
        <lane id="-E2_0" index="0" speed="13.89" length="36.40" shape="-8.00,50.00 -8.00,13.60"/>
        <lane id="-E2_1" index="1" speed="13.89" length="36.40" shape="-4.80,50.00 -4.80,13.60"/>
        <lane id="-E2_2" index="2" speed="13.89" length="36.40" shape="-1.60,50.00 -1.60,13.60"/>
    </edge>
    <edge id="-E3" from="J4" to="J0" priority="-1">
        <lane id="-E3_0" index="0" speed="13.89" length="36.40" shape="8.00,-50.00 8.00,-13.60"/>
        <lane id="-E3_1" index="1" speed="13.89" length="36.40" shape="4.80,-50.00 4.80,-13.60"/>
        <lane id="-E3_2" index="2" speed="13.89" length="36.40" shape="1.60,-50.00 1.60,-13.60"/>
    </edge>
    <edge id="E0" from="J0" to="J1" priority="-1">
        <lane id="E0_0" index="0" speed="13.89" length="36.40" shape="-13.60,4.80 -50.00,4.80"/>
        <lane id="E0_1" index="1" speed="13.89" length="36.40" shape="-13.60,1.60 -50.00,1.60"/>
    </edge>
    <edge id="E1" from="J0" to="J2" priority="-1">
        <lane id="E1_0" index="0" speed="13.89" length="36.40" shape="13.60,-4.80 50.00,-4.80"/>
        <lane id="E1_1" index="1" speed="13.89" length="36.40" shape="13.60,-1.60 50.00,-1.60"/>
    </edge>
    <edge id="E2" from="J0" to="J3" priority="-1">
        <lane id="E2_0" index="0" speed="13.89" length="36.40" shape="4.80,13.60 4.80,50.00"/>
        <lane id="E2_1" index="1" speed="13.89" length="36.40" shape="1.60,13.60 1.60,50.00"/>
    </edge>
    <edge id="E3" from="J0" to="J4" priority="-1">
        <lane id="E3_0" index="0" speed="13.89" length="36.40" shape="-4.80,-13.60 -4.80,-50.00"/>
        <lane id="E3_1" index="1" speed="13.89" length="36.40" shape="-1.60,-13.60 -1.60,-50.00"/>
    </edge>

    <junction id="J0" type="priority" x="0.00" y="0.00" pass="true" incLanes="-E2_0 -E2_1 -E2_2 -E1_0 -E1_1 -E1_2 -E3_0 -E3_1 -E3_2 -E0_0 -E0_1 -E0_2" intLanes=":J0_0_0 :J0_0_1 :J0_2_0 :J0_2_1 :J0_24_0 :J0_25_0 :J0_6_0 :J0_6_1 :J0_8_0 :J0_8_1 :J0_10_0 :J0_10_1 :J0_12_0 :J0_12_1 :J0_14_0 :J0_14_1 :J0_26_0 :J0_27_0 :J0_18_0 :J0_18_1 :J0_20_0 :J0_20_1 :J0_22_0 :J0_22_1" shape="-9.60,13.60 6.40,13.60 7.20,11.38 8.20,10.60 9.60,10.04 11.40,9.71 13.60,9.60 13.60,-6.40 11.38,-7.20 10.60,-8.20 10.04,-9.60 9.71,-11.40 9.60,-13.60 -6.40,-13.60 -7.20,-11.38 -8.20,-10.60 -9.60,-10.04 -11.40,-9.71 -13.60,-9.60 -13.60,6.40 -11.38,7.20 -10.60,8.20 -10.04,9.60 -9.71,11.40">
        <request index="0"  response="000000000000000000000000" foes="000000110000001100000000" cont="0"/>
        <request index="1"  response="000000000000000000000000" foes="000000110000001100000000" cont="0"/>
        <request index="2"  response="000000000000000000000000" foes="111111110000111100000000" cont="0"/>
        <request index="3"  response="000000000000000000000000" foes="111111110000111100000000" cont="0"/>
        <request index="4"  response="000000001111000000000000" foes="111100001111111100000000" cont="1"/>
        <request index="5"  response="000000001111000000000000" foes="111100001111111100000000" cont="1"/>
        <request index="6"  response="000000001100000000000000" foes="110000001100000000000000" cont="0"/>
        <request index="7"  response="000000001100000000000000" foes="110000001100000000000000" cont="0"/>
        <request index="8"  response="000000111100000000111111" foes="110000111100000000111111" cont="0"/>
        <request index="9"  response="000000111100000000111111" foes="110000111100000000111111" cont="0"/>
        <request index="10" response="001111111100000000111100" foes="001111111100000000111100" cont="0"/>
        <request index="11" response="001111111100000000111100" foes="001111111100000000111100" cont="0"/>
        <request index="12" response="000000000000000000000000" foes="001100000000000000110000" cont="0"/>
        <request index="13" response="000000000000000000000000" foes="001100000000000000110000" cont="0"/>
        <request index="14" response="000000000000000000000000" foes="111100000000111111110000" cont="0"/>
        <request index="15" response="000000000000000000000000" foes="111100000000111111110000" cont="0"/>
        <request index="16" response="000000000000000000001111" foes="111100000000111100001111" cont="1"/>
        <request index="17" response="000000000000000000001111" foes="111100000000111100001111" cont="1"/>
        <request index="18" response="000000000000000000001100" foes="000000000000110000001100" cont="0"/>
        <request index="19" response="000000000000000000001100" foes="000000000000110000001100" cont="0"/>
        <request index="20" response="000000111111000000111100" foes="000000111111110000111100" cont="0"/>
        <request index="21" response="000000111111000000111100" foes="000000111111110000111100" cont="0"/>
        <request index="22" response="000000111100001111111100" foes="000000111100001111111100" cont="0"/>
        <request index="23" response="000000111100001111111100" foes="000000111100001111111100" cont="0"/>
    </junction>
    <junction id="J1" type="dead_end" x="-50.00" y="0.00" incLanes="E0_0 E0_1" intLanes="" shape="-50.00,0.00 -50.00,6.40 -50.00,0.00"/>
    <junction id="J2" type="dead_end" x="50.00" y="0.00" incLanes="E1_0 E1_1" intLanes="" shape="50.00,0.00 50.00,-6.40 50.00,0.00"/>
    <junction id="J3" type="dead_end" x="0.00" y="50.00" incLanes="E2_0 E2_1" intLanes="" shape="0.00,50.00 6.40,50.00 0.00,50.00"/>
    <junction id="J4" type="dead_end" x="0.00" y="-50.00" incLanes="E3_0 E3_1" intLanes="" shape="0.00,-50.00 -6.40,-50.00 0.00,-50.00"/>

    <junction id=":J0_24_0" type="internal" x="0.08" y="4.08" incLanes=":J0_4_0 -E3_0 -E3_1" intLanes=":J0_8_0 :J0_8_1 :J0_10_0 :J0_10_1 :J0_12_0 :J0_12_1 :J0_14_0 :J0_14_1 :J0_20_0 :J0_20_1 :J0_22_0 :J0_22_1"/>
    <junction id=":J0_25_0" type="internal" x="-0.42" y="6.57" incLanes=":J0_4_1 -E3_0 -E3_1" intLanes=":J0_8_0 :J0_8_1 :J0_10_0 :J0_10_1 :J0_12_0 :J0_12_1 :J0_14_0 :J0_14_1 :J0_20_0 :J0_20_1 :J0_22_0 :J0_22_1"/>
    <junction id=":J0_26_0" type="internal" x="-0.08" y="-4.08" incLanes=":J0_16_0 -E2_0 -E2_1" intLanes=":J0_0_0 :J0_0_1 :J0_2_0 :J0_2_1 :J0_8_0 :J0_8_1 :J0_10_0 :J0_10_1 :J0_20_0 :J0_20_1 :J0_22_0 :J0_22_1"/>
    <junction id=":J0_27_0" type="internal" x="0.42" y="-6.57" incLanes=":J0_16_1 -E2_0 -E2_1" intLanes=":J0_0_0 :J0_0_1 :J0_2_0 :J0_2_1 :J0_8_0 :J0_8_1 :J0_10_0 :J0_10_1 :J0_20_0 :J0_20_1 :J0_22_0 :J0_22_1"/>

    <connection from="-E0" to="E3" fromLane="0" toLane="0" via=":J0_18_0" dir="r" state="m"/>
    <connection from="-E0" to="E3" fromLane="0" toLane="1" via=":J0_18_1" dir="r" state="m"/>
    <connection from="-E0" to="E1" fromLane="1" toLane="0" via=":J0_20_0" dir="s" state="m"/>
    <connection from="-E0" to="E1" fromLane="1" toLane="1" via=":J0_20_1" dir="s" state="m"/>
    <connection from="-E0" to="E2" fromLane="2" toLane="0" via=":J0_22_0" dir="l" state="m"/>
    <connection from="-E0" to="E2" fromLane="2" toLane="1" via=":J0_22_1" dir="l" state="m"/>
    <connection from="-E1" to="E2" fromLane="0" toLane="0" via=":J0_6_0" dir="r" state="m"/>
    <connection from="-E1" to="E2" fromLane="0" toLane="1" via=":J0_6_1" dir="r" state="m"/>
    <connection from="-E1" to="E0" fromLane="1" toLane="0" via=":J0_8_0" dir="s" state="m"/>
    <connection from="-E1" to="E0" fromLane="1" toLane="1" via=":J0_8_1" dir="s" state="m"/>
    <connection from="-E1" to="E3" fromLane="2" toLane="0" via=":J0_10_0" dir="l" state="m"/>
    <connection from="-E1" to="E3" fromLane="2" toLane="1" via=":J0_10_1" dir="l" state="m"/>
    <connection from="-E2" to="E0" fromLane="0" toLane="0" via=":J0_0_0" dir="r" state="M"/>
    <connection from="-E2" to="E0" fromLane="0" toLane="1" via=":J0_0_1" dir="r" state="M"/>
    <connection from="-E2" to="E3" fromLane="1" toLane="0" via=":J0_2_0" dir="s" state="M"/>
    <connection from="-E2" to="E3" fromLane="1" toLane="1" via=":J0_2_1" dir="s" state="M"/>
    <connection from="-E2" to="E1" fromLane="2" toLane="0" via=":J0_4_0" dir="l" state="m"/>
    <connection from="-E2" to="E1" fromLane="2" toLane="1" via=":J0_4_1" dir="l" state="m"/>
    <connection from="-E3" to="E1" fromLane="0" toLane="0" via=":J0_12_0" dir="r" state="M"/>
    <connection from="-E3" to="E1" fromLane="0" toLane="1" via=":J0_12_1" dir="r" state="M"/>
    <connection from="-E3" to="E2" fromLane="1" toLane="0" via=":J0_14_0" dir="s" state="M"/>
    <connection from="-E3" to="E2" fromLane="1" toLane="1" via=":J0_14_1" dir="s" state="M"/>
    <connection from="-E3" to="E0" fromLane="2" toLane="0" via=":J0_16_0" dir="l" state="m"/>
    <connection from="-E3" to="E0" fromLane="2" toLane="1" via=":J0_16_1" dir="l" state="m"/>

    <connection from=":J0_0" to="E0" fromLane="0" toLane="0" dir="r" state="M"/>
    <connection from=":J0_0" to="E0" fromLane="1" toLane="1" dir="r" state="M"/>
    <connection from=":J0_2" to="E3" fromLane="0" toLane="0" dir="s" state="M"/>
    <connection from=":J0_2" to="E3" fromLane="1" toLane="1" dir="s" state="M"/>
    <connection from=":J0_4" to="E1" fromLane="0" toLane="0" via=":J0_24_0" dir="l" state="m"/>
    <connection from=":J0_24" to="E1" fromLane="0" toLane="0" dir="l" state="M"/>
    <connection from=":J0_4" to="E1" fromLane="1" toLane="1" via=":J0_25_0" dir="l" state="m"/>
    <connection from=":J0_25" to="E1" fromLane="0" toLane="1" dir="l" state="M"/>
    <connection from=":J0_6" to="E2" fromLane="0" toLane="0" dir="r" state="M"/>
    <connection from=":J0_6" to="E2" fromLane="1" toLane="1" dir="r" state="M"/>
    <connection from=":J0_8" to="E0" fromLane="0" toLane="0" dir="s" state="M"/>
    <connection from=":J0_8" to="E0" fromLane="1" toLane="1" dir="s" state="M"/>
    <connection from=":J0_10" to="E3" fromLane="0" toLane="0" dir="l" state="M"/>
    <connection from=":J0_10" to="E3" fromLane="1" toLane="1" dir="l" state="M"/>
    <connection from=":J0_12" to="E1" fromLane="0" toLane="0" dir="r" state="M"/>
    <connection from=":J0_12" to="E1" fromLane="1" toLane="1" dir="r" state="M"/>
    <connection from=":J0_14" to="E2" fromLane="0" toLane="0" dir="s" state="M"/>
    <connection from=":J0_14" to="E2" fromLane="1" toLane="1" dir="s" state="M"/>
    <connection from=":J0_16" to="E0" fromLane="0" toLane="0" via=":J0_26_0" dir="l" state="m"/>
    <connection from=":J0_26" to="E0" fromLane="0" toLane="0" dir="l" state="M"/>
    <connection from=":J0_16" to="E0" fromLane="1" toLane="1" via=":J0_27_0" dir="l" state="m"/>
    <connection from=":J0_27" to="E0" fromLane="0" toLane="1" dir="l" state="M"/>
    <connection from=":J0_18" to="E3" fromLane="0" toLane="0" dir="r" state="M"/>
    <connection from=":J0_18" to="E3" fromLane="1" toLane="1" dir="r" state="M"/>
    <connection from=":J0_20" to="E1" fromLane="0" toLane="0" dir="s" state="M"/>
    <connection from=":J0_20" to="E1" fromLane="1" toLane="1" dir="s" state="M"/>
    <connection from=":J0_22" to="E2" fromLane="0" toLane="0" dir="l" state="M"/>
    <connection from=":J0_22" to="E2" fromLane="1" toLane="1" dir="l" state="M"/>

</net>
