<?xml version="1.0" encoding="UTF-8"?>

<!-- generated on 2024-09-21 21:12:49 by Eclipse SUMO netedit Version 1.19.0
<configuration xmlns:xsi="http://www.w3.org/2001/XMLSchema-instance" xsi:noNamespaceSchemaLocation="http://sumo.dlr.de/xsd/neteditConfiguration.xsd">

    <input>
        <sumo-net-file value="E:\gitcode\bigcreating\net_file.net.xml"/>
    </input>

    <output>
        <output-file value="E:\gitcode\bigcreating\net_file.net.xml"/>
    </output>

    <processing>
        <geometry.min-radius.fix.railways value="false"/>
        <geometry.max-grade.fix value="false"/>
        <offset.disable-normalization value="true"/>
        <lefthand value="0"/>
    </processing>

    <junctions>
        <no-turnarounds value="true"/>
        <junctions.corner-detail value="5"/>
        <junctions.limit-turn-speed value="5.50"/>
        <rectangular-lane-cut value="0"/>
    </junctions>

    <pedestrian>
        <walkingareas value="0"/>
    </pedestrian>

</configuration>
-->

<net version="1.16" junctionCornerDetail="5" limitTurnSpeed="5.50" xmlns:xsi="http://www.w3.org/2001/XMLSchema-instance" xsi:noNamespaceSchemaLocation="http://sumo.dlr.de/xsd/net_file.xsd">

    <location netOffset="0.00,0.00" convBoundary="-50.00,-50.00,50.00,50.00" origBoundary="-10000000000.00,-10000000000.00,10000000000.00,10000000000.00" projParameter="!"/>

    <edge id=":J0_0" function="internal">
        <lane id=":J0_0_0" index="0" speed="6.51" length="9.03" shape="-8.00,13.60 -8.35,11.15 -9.40,9.40 -11.15,8.35 -13.60,8.00"/>
        <lane id=":J0_0_1" index="1" speed="7.33" length="11.73" shape="-8.00,13.60 -8.35,9.75 -9.40,7.00 -11.15,5.35 -13.60,4.80"/>
    </edge>
    <edge id=":J0_2" function="internal">
        <lane id=":J0_2_0" index="0" speed="13.89" length="27.37" shape="-4.80,13.60 -5.30,5.50 -6.40,0.00 -7.50,-5.50 -8.00,-13.60"/>
        <lane id=":J0_2_1" index="1" speed="13.89" length="27.37" shape="-4.80,13.60 -4.80,-13.60"/>
        <lane id=":J0_2_2" index="2" speed="13.89" length="27.37" shape="-4.80,13.60 -4.30,5.50 -3.20,0.00 -2.10,-5.50 -1.60,-13.60"/>
    </edge>
    <edge id=":J0_5" function="internal">
        <lane id=":J0_5_0" index="0" speed="11.39" length="11.62" shape="-1.60,13.60 -0.65,4.15 0.17,2.20"/>
        <lane id=":J0_5_1" index="1" speed="10.88" length="8.63" shape="-1.60,13.60 -0.65,5.55 -0.42,5.08"/>
        <lane id=":J0_5_2" index="2" speed="10.36" length="6.91" shape="-1.60,13.60 -0.65,6.95 -0.55,6.78"/>
    </edge>
    <edge id=":J0_32" function="internal">
        <lane id=":J0_32_0" index="0" speed="11.39" length="18.24" shape="0.17,2.20 2.20,-2.60 6.95,-6.65 13.60,-8.00"/>
    </edge>
    <edge id=":J0_33" function="internal">
        <lane id=":J0_33_0" index="0" speed="10.88" length="18.51" shape="-0.42,5.08 2.20,-0.20 6.95,-3.65 13.60,-4.80"/>
    </edge>
    <edge id=":J0_34" function="internal">
        <lane id=":J0_34_0" index="0" speed="10.36" length="17.60" shape="-0.55,6.78 2.20,2.20 6.95,-0.65 13.60,-1.60"/>
    </edge>
    <edge id=":J0_8" function="internal">
        <lane id=":J0_8_0" index="0" speed="6.51" length="9.03" shape="13.60,8.00 11.15,8.35 9.40,9.40 8.35,11.15 8.00,13.60"/>
        <lane id=":J0_8_1" index="1" speed="7.33" length="11.73" shape="13.60,8.00 9.75,8.35 7.00,9.40 5.35,11.15 4.80,13.60"/>
    </edge>
    <edge id=":J0_10" function="internal">
        <lane id=":J0_10_0" index="0" speed="13.89" length="27.37" shape="13.60,4.80 5.50,5.30 0.00,6.40 -5.50,7.50 -13.60,8.00"/>
        <lane id=":J0_10_1" index="1" speed="13.89" length="27.37" shape="13.60,4.80 -13.60,4.80"/>
        <lane id=":J0_10_2" index="2" speed="13.89" length="27.37" shape="13.60,4.80 5.50,4.30 0.00,3.20 -5.50,2.10 -13.60,1.60"/>
    </edge>
    <edge id=":J0_13" function="internal">
        <lane id=":J0_13_0" index="0" speed="11.39" length="29.85" shape="13.60,1.60 4.15,0.65 -2.60,-2.20 -6.65,-6.95 -8.00,-13.60"/>
        <lane id=":J0_13_1" index="1" speed="10.88" length="27.14" shape="13.60,1.60 5.55,0.65 -0.20,-2.20 -3.65,-6.95 -4.80,-13.60"/>
        <lane id=":J0_13_2" index="2" speed="10.36" length="24.51" shape="13.60,1.60 6.95,0.65 2.20,-2.20 -0.65,-6.95 -1.60,-13.60"/>
    </edge>
    <edge id=":J0_16" function="internal">
        <lane id=":J0_16_0" index="0" speed="6.51" length="9.03" shape="8.00,-13.60 8.35,-11.15 9.40,-9.40 11.15,-8.35 13.60,-8.00"/>
        <lane id=":J0_16_1" index="1" speed="7.33" length="11.73" shape="8.00,-13.60 8.35,-9.75 9.40,-7.00 11.15,-5.35 13.60,-4.80"/>
    </edge>
    <edge id=":J0_18" function="internal">
        <lane id=":J0_18_0" index="0" speed="13.89" length="27.37" shape="4.80,-13.60 5.30,-5.50 6.40,0.00 7.50,5.50 8.00,13.60"/>
        <lane id=":J0_18_1" index="1" speed="13.89" length="27.37" shape="4.80,-13.60 4.80,13.60"/>
        <lane id=":J0_18_2" index="2" speed="13.89" length="27.37" shape="4.80,-13.60 4.30,-5.50 3.20,0.00 2.10,5.50 1.60,13.60"/>
    </edge>
    <edge id=":J0_21" function="internal">
        <lane id=":J0_21_0" index="0" speed="11.39" length="11.62" shape="1.60,-13.60 0.65,-4.15 -0.17,-2.20"/>
        <lane id=":J0_21_1" index="1" speed="10.88" length="8.63" shape="1.60,-13.60 0.65,-5.55 0.42,-5.08"/>
        <lane id=":J0_21_2" index="2" speed="10.36" length="6.91" shape="1.60,-13.60 0.65,-6.95 0.55,-6.78"/>
    </edge>
    <edge id=":J0_35" function="internal">
        <lane id=":J0_35_0" index="0" speed="11.39" length="18.24" shape="-0.17,-2.20 -2.20,2.60 -6.95,6.65 -13.60,8.00"/>
    </edge>
    <edge id=":J0_36" function="internal">
        <lane id=":J0_36_0" index="0" speed="10.88" length="18.51" shape="0.42,-5.08 -2.20,0.20 -6.95,3.65 -13.60,4.80"/>
    </edge>
    <edge id=":J0_37" function="internal">
        <lane id=":J0_37_0" index="0" speed="10.36" length="17.60" shape="0.55,-6.78 -2.20,-2.20 -6.95,0.65 -13.60,1.60"/>
    </edge>
    <edge id=":J0_24" function="internal">
        <lane id=":J0_24_0" index="0" speed="6.51" length="9.03" shape="-13.60,-8.00 -11.15,-8.35 -9.40,-9.40 -8.35,-11.15 -8.00,-13.60"/>
        <lane id=":J0_24_1" index="1" speed="7.33" length="11.73" shape="-13.60,-8.00 -9.75,-8.35 -7.00,-9.40 -5.35,-11.15 -4.80,-13.60"/>
    </edge>
    <edge id=":J0_26" function="internal">
        <lane id=":J0_26_0" index="0" speed="13.89" length="27.37" shape="-13.60,-4.80 -5.50,-5.30 0.00,-6.40 5.50,-7.50 13.60,-8.00"/>
        <lane id=":J0_26_1" index="1" speed="13.89" length="27.37" shape="-13.60,-4.80 13.60,-4.80"/>
        <lane id=":J0_26_2" index="2" speed="13.89" length="27.37" shape="-13.60,-4.80 -5.50,-4.30 0.00,-3.20 5.50,-2.10 13.60,-1.60"/>
    </edge>
    <edge id=":J0_29" function="internal">
        <lane id=":J0_29_0" index="0" speed="11.39" length="29.85" shape="-13.60,-1.60 -4.15,-0.65 2.60,2.20 6.65,6.95 8.00,13.60"/>
        <lane id=":J0_29_1" index="1" speed="10.88" length="27.14" shape="-13.60,-1.60 -5.55,-0.65 0.20,2.20 3.65,6.95 4.80,13.60"/>
        <lane id=":J0_29_2" index="2" speed="10.36" length="24.51" shape="-13.60,-1.60 -6.95,-0.65 -2.20,2.20 0.65,6.95 1.60,13.60"/>
    </edge>

    <edge id="-E0" from="J1" to="J0" priority="-1">
        <lane id="-E0_0" index="0" speed="13.89" length="36.40" shape="-50.00,-8.00 -13.60,-8.00"/>
        <lane id="-E0_1" index="1" speed="13.89" length="36.40" shape="-50.00,-4.80 -13.60,-4.80"/>
        <lane id="-E0_2" index="2" speed="13.89" length="36.40" shape="-50.00,-1.60 -13.60,-1.60"/>
    </edge>
    <edge id="-E1" from="J2" to="J0" priority="-1">
        <lane id="-E1_0" index="0" speed="13.89" length="36.40" shape="50.00,8.00 13.60,8.00"/>
        <lane id="-E1_1" index="1" speed="13.89" length="36.40" shape="50.00,4.80 13.60,4.80"/>
        <lane id="-E1_2" index="2" speed="13.89" length="36.40" shape="50.00,1.60 13.60,1.60"/>
    </edge>
    <edge id="-E2" from="J3" to="J0" priority="-1">
        <lane id="-E2_0" index="0" speed="13.89" length="36.40" shape="-8.00,50.00 -8.00,13.60"/>
        <lane id="-E2_1" index="1" speed="13.89" length="36.40" shape="-4.80,50.00 -4.80,13.60"/>
        <lane id="-E2_2" index="2" speed="13.89" length="36.40" shape="-1.60,50.00 -1.60,13.60"/>
    </edge>
    <edge id="-E3" from="J4" to="J0" priority="-1">
        <lane id="-E3_0" index="0" speed="13.89" length="36.40" shape="8.00,-50.00 8.00,-13.60"/>
        <lane id="-E3_1" index="1" speed="13.89" length="36.40" shape="4.80,-50.00 4.80,-13.60"/>
        <lane id="-E3_2" index="2" speed="13.89" length="36.40" shape="1.60,-50.00 1.60,-13.60"/>
    </edge>
    <edge id="E0" from="J0" to="J1" priority="-1">
        <lane id="E0_0" index="0" speed="13.89" length="36.40" shape="-13.60,8.00 -50.00,8.00"/>
        <lane id="E0_1" index="1" speed="13.89" length="36.40" shape="-13.60,4.80 -50.00,4.80"/>
        <lane id="E0_2" index="2" speed="13.89" length="36.40" shape="-13.60,1.60 -50.00,1.60"/>
    </edge>
    <edge id="E1" from="J0" to="J2" priority="-1">
        <lane id="E1_0" index="0" speed="13.89" length="36.40" shape="13.60,-8.00 50.00,-8.00"/>
        <lane id="E1_1" index="1" speed="13.89" length="36.40" shape="13.60,-4.80 50.00,-4.80"/>
        <lane id="E1_2" index="2" speed="13.89" length="36.40" shape="13.60,-1.60 50.00,-1.60"/>
    </edge>
    <edge id="E2" from="J0" to="J3" priority="-1">
        <lane id="E2_0" index="0" speed="13.89" length="36.40" shape="8.00,13.60 8.00,50.00"/>
        <lane id="E2_1" index="1" speed="13.89" length="36.40" shape="4.80,13.60 4.80,50.00"/>
        <lane id="E2_2" index="2" speed="13.89" length="36.40" shape="1.60,13.60 1.60,50.00"/>
    </edge>
    <edge id="E3" from="J0" to="J4" priority="-1">
        <lane id="E3_0" index="0" speed="13.89" length="36.40" shape="-8.00,-13.60 -8.00,-50.00"/>
        <lane id="E3_1" index="1" speed="13.89" length="36.40" shape="-4.80,-13.60 -4.80,-50.00"/>
        <lane id="E3_2" index="2" speed="13.89" length="36.40" shape="-1.60,-13.60 -1.60,-50.00"/>
    </edge>

    <junction id="J0" type="priority" x="0.00" y="0.00" incLanes="-E2_0 -E2_1 -E2_2 -E1_0 -E1_1 -E1_2 -E3_0 -E3_1 -E3_2 -E0_0 -E0_1 -E0_2" intLanes=":J0_0_0 :J0_0_1 :J0_2_0 :J0_2_1 :J0_2_2 :J0_32_0 :J0_33_0 :J0_34_0 :J0_8_0 :J0_8_1 :J0_10_0 :J0_10_1 :J0_10_2 :J0_13_0 :J0_13_1 :J0_13_2 :J0_16_0 :J0_16_1 :J0_18_0 :J0_18_1 :J0_18_2 :J0_35_0 :J0_36_0 :J0_37_0 :J0_24_0 :J0_24_1 :J0_26_0 :J0_26_1 :J0_26_2 :J0_29_0 :J0_29_1 :J0_29_2" shape="-9.60,13.60 9.60,13.60 10.04,11.38 10.60,10.60 11.38,10.04 12.38,9.71 13.60,9.60 13.60,-9.60 11.38,-10.04 10.60,-10.60 10.04,-11.38 9.71,-12.38 9.60,-13.60 -9.60,-13.60 -10.04,-11.38 -10.60,-10.60 -11.38,-10.04 -12.38,-9.71 -13.60,-9.60 -13.60,9.60 -11.38,10.04 -10.60,10.60 -10.04,11.38 -9.71,12.38">
        <request index="0"  response="00000000000000000000000000000000" foes="00000000111000000001110000000000" cont="0"/>
        <request index="1"  response="00000000000000000000000000000000" foes="00000000111000000001110000000000" cont="0"/>
        <request index="2"  response="00000000000000000000000000000000" foes="11111111111000001111110000000000" cont="0"/>
        <request index="3"  response="00000000000000000000000000000000" foes="11111111111000001111110000000000" cont="0"/>
        <request index="4"  response="00000000000000000000000000000000" foes="11111111111000001111110000000000" cont="0"/>
        <request index="5"  response="00000000001111110000000000000000" foes="11111100001111111111110000000000" cont="1"/>
        <request index="6"  response="00000000000111110000000000000000" foes="11111100000111111111110000000000" cont="1"/>
        <request index="7"  response="00000000000111110000000000000000" foes="11111100000111111111110000000000" cont="1"/>
        <request index="8"  response="00000000000111000000000000000000" foes="11100000000111000000000000000000" cont="0"/>
        <request index="9"  response="00000000000111000000000000000000" foes="11100000000111000000000000000000" cont="0"/>
        <request index="10" response="00000000111111000000000011111111" foes="11100000111111000000000011111111" cont="0"/>
        <request index="11" response="00000000111111000000000011111111" foes="11100000111111000000000011111111" cont="0"/>
        <request index="12" response="00000000111111000000000011111111" foes="11100000111111000000000011111111" cont="0"/>
        <request index="13" response="00011111111111000000000011111100" foes="00111111111111000000000011111100" cont="0"/>
        <request index="14" response="00011111111111000000000011111100" foes="00011111111111000000000011111100" cont="0"/>
        <request index="15" response="00011111111111000000000011111100" foes="00011111111111000000000011111100" cont="0"/>
        <request index="16" response="00000000000000000000000000000000" foes="00011100000000000000000011100000" cont="0"/>
        <request index="17" response="00000000000000000000000000000000" foes="00011100000000000000000011100000" cont="0"/>
        <request index="18" response="00000000000000000000000000000000" foes="11111100000000001111111111100000" cont="0"/>
        <request index="19" response="00000000000000000000000000000000" foes="11111100000000001111111111100000" cont="0"/>
        <request index="20" response="00000000000000000000000000000000" foes="11111100000000001111111111100000" cont="0"/>
        <request index="21" response="00000000000000000000000000011111" foes="11111100000000001111110000111111" cont="1"/>
        <request index="22" response="00000000000000000000000000011111" foes="11111100000000001111110000011111" cont="1"/>
        <request index="23" response="00000000000000000000000000011111" foes="11111100000000001111110000011111" cont="1"/>
        <request index="24" response="00000000000000000000000000011100" foes="00000000000000001110000000011100" cont="0"/>
        <request index="25" response="00000000000000000000000000011100" foes="00000000000000001110000000011100" cont="0"/>
        <request index="26" response="00000000111111110000000011111100" foes="00000000111111111110000011111100" cont="0"/>
        <request index="27" response="00000000111111110000000011111100" foes="00000000111111111110000011111100" cont="0"/>
        <request index="28" response="00000000111111110000000011111100" foes="00000000111111111110000011111100" cont="0"/>
        <request index="29" response="00000000111111000011111111111100" foes="00000000111111000011111111111100" cont="0"/>
        <request index="30" response="00000000111111000001111111111100" foes="00000000111111000001111111111100" cont="0"/>
        <request index="31" response="00000000111111000001111111111100" foes="00000000111111000001111111111100" cont="0"/>
    </junction>
    <junction id="J1" type="dead_end" x="-50.00" y="0.00" incLanes="E0_0 E0_1 E0_2" intLanes="" shape="-50.00,0.00 -50.00,9.60 -50.00,0.00"/>
    <junction id="J2" type="dead_end" x="50.00" y="0.00" incLanes="E1_0 E1_1 E1_2" intLanes="" shape="50.00,0.00 50.00,-9.60 50.00,0.00"/>
    <junction id="J3" type="dead_end" x="0.00" y="50.00" incLanes="E2_0 E2_1 E2_2" intLanes="" shape="0.00,50.00 9.60,50.00 0.00,50.00"/>
    <junction id="J4" type="dead_end" x="0.00" y="-50.00" incLanes="E3_0 E3_1 E3_2" intLanes="" shape="0.00,-50.00 -9.60,-50.00 0.00,-50.00"/>

    <junction id=":J0_32_0" type="internal" x="0.17" y="2.20" incLanes=":J0_5_0 -E3_0 -E3_1" intLanes=":J0_10_0 :J0_10_1 :J0_10_2 :J0_13_0 :J0_13_1 :J0_13_2 :J0_16_0 :J0_16_1 :J0_18_0 :J0_18_1 :J0_18_2 :J0_26_0 :J0_26_1 :J0_26_2 :J0_29_0 :J0_29_1 :J0_29_2"/>
    <junction id=":J0_33_0" type="internal" x="-0.42" y="5.08" incLanes=":J0_5_1 -E3_0 -E3_1" intLanes=":J0_10_0 :J0_10_1 :J0_10_2 :J0_13_0 :J0_13_1 :J0_13_2 :J0_16_0 :J0_16_1 :J0_18_0 :J0_18_1 :J0_18_2 :J0_26_0 :J0_26_1 :J0_26_2 :J0_29_0 :J0_29_1 :J0_29_2"/>
    <junction id=":J0_34_0" type="internal" x="-0.55" y="6.78" incLanes=":J0_5_2 -E3_0 -E3_1" intLanes=":J0_10_0 :J0_10_1 :J0_10_2 :J0_13_0 :J0_13_1 :J0_13_2 :J0_16_0 :J0_16_1 :J0_18_0 :J0_18_1 :J0_18_2 :J0_26_0 :J0_26_1 :J0_26_2 :J0_29_0 :J0_29_1 :J0_29_2"/>
    <junction id=":J0_35_0" type="internal" x="-0.17" y="-2.20" incLanes=":J0_21_0 -E2_0 -E2_1" intLanes=":J0_0_0 :J0_0_1 :J0_2_0 :J0_2_1 :J0_2_2 :J0_10_0 :J0_10_1 :J0_10_2 :J0_13_0 :J0_13_1 :J0_13_2 :J0_26_0 :J0_26_1 :J0_26_2 :J0_29_0 :J0_29_1 :J0_29_2"/>
    <junction id=":J0_36_0" type="internal" x="0.42" y="-5.08" incLanes=":J0_21_1 -E2_0 -E2_1" intLanes=":J0_0_0 :J0_0_1 :J0_2_0 :J0_2_1 :J0_2_2 :J0_10_0 :J0_10_1 :J0_10_2 :J0_13_0 :J0_13_1 :J0_13_2 :J0_26_0 :J0_26_1 :J0_26_2 :J0_29_0 :J0_29_1 :J0_29_2"/>
    <junction id=":J0_37_0" type="internal" x="0.55" y="-6.78" incLanes=":J0_21_2 -E2_0 -E2_1" intLanes=":J0_0_0 :J0_0_1 :J0_2_0 :J0_2_1 :J0_2_2 :J0_10_0 :J0_10_1 :J0_10_2 :J0_13_0 :J0_13_1 :J0_13_2 :J0_26_0 :J0_26_1 :J0_26_2 :J0_29_0 :J0_29_1 :J0_29_2"/>

    <connection from="-E0" to="E3" fromLane="0" toLane="0" via=":J0_24_0" dir="r" state="m"/>
    <connection from="-E0" to="E3" fromLane="0" toLane="1" via=":J0_24_1" dir="r" state="m"/>
    <connection from="-E0" to="E1" fromLane="1" toLane="0" via=":J0_26_0" dir="s" state="m"/>
    <connection from="-E0" to="E1" fromLane="1" toLane="1" via=":J0_26_1" dir="s" state="m"/>
    <connection from="-E0" to="E1" fromLane="1" toLane="2" via=":J0_26_2" dir="s" state="m"/>
    <connection from="-E0" to="E2" fromLane="2" toLane="0" via=":J0_29_0" dir="l" state="m"/>
    <connection from="-E0" to="E2" fromLane="2" toLane="1" via=":J0_29_1" dir="l" state="m"/>
    <connection from="-E0" to="E2" fromLane="2" toLane="2" via=":J0_29_2" dir="l" state="m"/>
    <connection from="-E1" to="E2" fromLane="0" toLane="0" via=":J0_8_0" dir="r" state="m"/>
    <connection from="-E1" to="E2" fromLane="0" toLane="1" via=":J0_8_1" dir="r" state="m"/>
    <connection from="-E1" to="E0" fromLane="1" toLane="0" via=":J0_10_0" dir="s" state="m"/>
    <connection from="-E1" to="E0" fromLane="1" toLane="1" via=":J0_10_1" dir="s" state="m"/>
    <connection from="-E1" to="E0" fromLane="1" toLane="2" via=":J0_10_2" dir="s" state="m"/>
    <connection from="-E1" to="E3" fromLane="2" toLane="0" via=":J0_13_0" dir="l" state="m"/>
    <connection from="-E1" to="E3" fromLane="2" toLane="1" via=":J0_13_1" dir="l" state="m"/>
    <connection from="-E1" to="E3" fromLane="2" toLane="2" via=":J0_13_2" dir="l" state="m"/>
    <connection from="-E2" to="E0" fromLane="0" toLane="0" via=":J0_0_0" dir="r" state="M"/>
    <connection from="-E2" to="E0" fromLane="0" toLane="1" via=":J0_0_1" dir="r" state="M"/>
    <connection from="-E2" to="E3" fromLane="1" toLane="0" via=":J0_2_0" dir="s" state="M"/>
    <connection from="-E2" to="E3" fromLane="1" toLane="1" via=":J0_2_1" dir="s" state="M"/>
    <connection from="-E2" to="E3" fromLane="1" toLane="2" via=":J0_2_2" dir="s" state="M"/>
    <connection from="-E2" to="E1" fromLane="2" toLane="0" via=":J0_5_0" dir="l" state="m"/>
    <connection from="-E2" to="E1" fromLane="2" toLane="1" via=":J0_5_1" dir="l" state="m"/>
    <connection from="-E2" to="E1" fromLane="2" toLane="2" via=":J0_5_2" dir="l" state="m"/>
    <connection from="-E3" to="E1" fromLane="0" toLane="0" via=":J0_16_0" dir="r" state="M"/>
    <connection from="-E3" to="E1" fromLane="0" toLane="1" via=":J0_16_1" dir="r" state="M"/>
    <connection from="-E3" to="E2" fromLane="1" toLane="0" via=":J0_18_0" dir="s" state="M"/>
    <connection from="-E3" to="E2" fromLane="1" toLane="1" via=":J0_18_1" dir="s" state="M"/>
    <connection from="-E3" to="E2" fromLane="1" toLane="2" via=":J0_18_2" dir="s" state="M"/>
    <connection from="-E3" to="E0" fromLane="2" toLane="0" via=":J0_21_0" dir="l" state="m"/>
    <connection from="-E3" to="E0" fromLane="2" toLane="1" via=":J0_21_1" dir="l" state="m"/>
    <connection from="-E3" to="E0" fromLane="2" toLane="2" via=":J0_21_2" dir="l" state="m"/>

    <connection from=":J0_0" to="E0" fromLane="0" toLane="0" dir="r" state="M"/>
    <connection from=":J0_0" to="E0" fromLane="1" toLane="1" dir="r" state="M"/>
    <connection from=":J0_2" to="E3" fromLane="0" toLane="0" dir="s" state="M"/>
    <connection from=":J0_2" to="E3" fromLane="1" toLane="1" dir="s" state="M"/>
    <connection from=":J0_2" to="E3" fromLane="2" toLane="2" dir="s" state="M"/>
    <connection from=":J0_5" to="E1" fromLane="0" toLane="0" via=":J0_32_0" dir="l" state="m"/>
    <connection from=":J0_32" to="E1" fromLane="0" toLane="0" dir="l" state="M"/>
    <connection from=":J0_5" to="E1" fromLane="1" toLane="1" via=":J0_33_0" dir="l" state="m"/>
    <connection from=":J0_33" to="E1" fromLane="0" toLane="1" dir="l" state="M"/>
    <connection from=":J0_5" to="E1" fromLane="2" toLane="2" via=":J0_34_0" dir="l" state="m"/>
    <connection from=":J0_34" to="E1" fromLane="0" toLane="2" dir="l" state="M"/>
    <connection from=":J0_8" to="E2" fromLane="0" toLane="0" dir="r" state="M"/>
    <connection from=":J0_8" to="E2" fromLane="1" toLane="1" dir="r" state="M"/>
    <connection from=":J0_10" to="E0" fromLane="0" toLane="0" dir="s" state="M"/>
    <connection from=":J0_10" to="E0" fromLane="1" toLane="1" dir="s" state="M"/>
    <connection from=":J0_10" to="E0" fromLane="2" toLane="2" dir="s" state="M"/>
    <connection from=":J0_13" to="E3" fromLane="0" toLane="0" dir="l" state="M"/>
    <connection from=":J0_13" to="E3" fromLane="1" toLane="1" dir="l" state="M"/>
    <connection from=":J0_13" to="E3" fromLane="2" toLane="2" dir="l" state="M"/>
    <connection from=":J0_16" to="E1" fromLane="0" toLane="0" dir="r" state="M"/>
    <connection from=":J0_16" to="E1" fromLane="1" toLane="1" dir="r" state="M"/>
    <connection from=":J0_18" to="E2" fromLane="0" toLane="0" dir="s" state="M"/>
    <connection from=":J0_18" to="E2" fromLane="1" toLane="1" dir="s" state="M"/>
    <connection from=":J0_18" to="E2" fromLane="2" toLane="2" dir="s" state="M"/>
    <connection from=":J0_21" to="E0" fromLane="0" toLane="0" via=":J0_35_0" dir="l" state="m"/>
    <connection from=":J0_35" to="E0" fromLane="0" toLane="0" dir="l" state="M"/>
    <connection from=":J0_21" to="E0" fromLane="1" toLane="1" via=":J0_36_0" dir="l" state="m"/>
    <connection from=":J0_36" to="E0" fromLane="0" toLane="1" dir="l" state="M"/>
    <connection from=":J0_21" to="E0" fromLane="2" toLane="2" via=":J0_37_0" dir="l" state="m"/>
    <connection from=":J0_37" to="E0" fromLane="0" toLane="2" dir="l" state="M"/>
    <connection from=":J0_24" to="E3" fromLane="0" toLane="0" dir="r" state="M"/>
    <connection from=":J0_24" to="E3" fromLane="1" toLane="1" dir="r" state="M"/>
    <connection from=":J0_26" to="E1" fromLane="0" toLane="0" dir="s" state="M"/>
    <connection from=":J0_26" to="E1" fromLane="1" toLane="1" dir="s" state="M"/>
    <connection from=":J0_26" to="E1" fromLane="2" toLane="2" dir="s" state="M"/>
    <connection from=":J0_29" to="E2" fromLane="0" toLane="0" dir="l" state="M"/>
    <connection from=":J0_29" to="E2" fromLane="1" toLane="1" dir="l" state="M"/>
    <connection from=":J0_29" to="E2" fromLane="2" toLane="2" dir="l" state="M"/>

</net>
