<configuration>
    <input>
        <net-file value="net_file.net.xml"/>
        <route-files value="routes.rou.xml"/>
    </input>
    <time>
        <begin value="0"/>
        <end value="29"/>
        <step-length value="0.01"/>
    </time>
    <output>
        <netstate-dump value="output/netstate-dump.xml"/>
        <summary value="output/summary.xml"/>
    </output>
</configuration>